<edges>
                    <edge from="0" id="add" to="1" numLanes="3" width="3.2" speed="60" />
                    </edges> 
