<?xml version="1.0" encoding="UTF-8"?>

<!-- generated on 09/16/21 11:32:29 by Eclipse SUMO netconvert Version 1.6.0
<configuration xmlns:xsi="http://www.w3.org/2001/XMLSchema-instance" xsi:noNamespaceSchemaLocation="http://sumo.dlr.de/xsd/netconvertConfiguration.xsd">

    <input>
        <node-files value="highway.node.xml"/>
        <edge-files value="highway.edg.xml"/>
    </input>

    <output>
        <output-file value="highway.net.xml"/>
    </output>

    <report>
        <aggregate-warnings value="5"/>
    </report>

</configuration>
-->

<net version="1.6" junctionCornerDetail="5" limitTurnSpeed="5.50" xmlns:xsi="http://www.w3.org/2001/XMLSchema-instance" xsi:noNamespaceSchemaLocation="http://sumo.dlr.de/xsd/net_file.xsd">

    <location netOffset="0.00,0.00" convBoundary="0.00,0.00,2000.00,0.00" origBoundary="0.00,0.00,2000.00,0.00" projParameter="!"/>

    <edge id="add" from="0" to="1" priority="-1">
        <lane id="add_0" index="0" speed="60.00" length="2000.00" width="3.20" shape="0.00,-8.00 2000.00,-8.00"/>
        <lane id="add_1" index="1" speed="60.00" length="2000.00" width="3.20" shape="0.00,-4.80 2000.00,-4.80"/>
        <lane id="add_2" index="2" speed="60.00" length="2000.00" width="3.20" shape="0.00,-1.60 2000.00,-1.60"/>
    </edge>

    <junction id="0" type="dead_end" x="0.00" y="0.00" incLanes="" intLanes="" shape="0.00,0.00 0.00,-9.60"/>
    <junction id="1" type="dead_end" x="2000.00" y="0.00" incLanes="add_0 add_1 add_2" intLanes="" shape="2000.00,-9.60 2000.00,0.00"/>

</net>
